sistemas/730.pwf
TITU
Sistema Sudeste 730 Barras                 
DCTE
(Mn) ( Val) (Mn) ( Val) (Mn) ( Val) (Mn) ( Val) (Mn) ( Val) (Mn) ( Val) 
BASE   100. DASE   100. TEPA  0.001 EXST     4. TETP     5. TBPA     5.
TLPP     1. TEPR  0.001 QLST     4. TLPR     1. TLPQ     2. TSBZ    .01
TSBA     5. ASTP    .05 VSTP     5. TLVC     .1 TLTC     .1 TSFR    .01
ZMAX   500. TLPV     .5 VDVM   150. VDVN    50. TUDC    .01 TADC    .01
PGER    30. TPST    0.1 VFLD    70. ZMIN   .001 HIST    470 LFIT     10
ACIT     20 LFCV      1 DCIT     10 VSIT     10 LPIT     50 LFLP     10
PDIT      1 LCRT     24 LPRT     60 CSTP     5. ASDC     1.
ICIT   9999 DMAX      5 FDIV     2. ICMN    .05 VART     5. TSTP     33
ICMV     .5 APAS    90. CPAR    70. VAVT     2. VAVF     5. VMVF    15.
VPVT     2. VPVF     5. VPMF    10. VSVF    20. VINF     1. VSUP     1.
TLSI     0. NDIR    20. STTR     5. TRPT   100. STIR     1. BFPO     1.
LFPO     .1 TLMT     0. TLMF     0. TLMG     0.                        
99999
DBAR
(Num)OETGb(   nome   )Gl( V)( A)( Pg)( Qg)( Qn)( Qm)(Bc  )( Pl)( Ql)( Sh)Are(Vf)M(1)(2)(3)(4)(5)(6)(7)(8)(9)(10
   10 L1  ANGRA----1MQ  1030-45. 300.167.1-999999999                  20.  11000                                   
   12 L1  LCBARRET-5MQ  1050-29. 500.-29.2-95409420.        5.8   0.       11000                                   
   14 L1  FUNIL----2MQ  1030-53. 140.69.83-91509150.        1.1   0.       11000                                   
   16 L1  FURNAS---7MQ  1050-33. 600.49.75-99999999.        7.6   0.       11000                                   
   18 L1  ITUMBIAR-5MQ  1050-16.1200.298.6-999999989        6.5   0.       11000                                   
   20 L1  MARIMBON-8MQ  1050-19. 500.-172.-99999999.        4.3   0.-200.  11000                                   
   22 L1  M.MOR.A--6MQ  1050-26. 250.3.165-90009000.        1.8   0.       11000                                   
   24 L1  M.MOR.B--4MQ   985-27. 150.41.05-999999962        1.2   0.       11000                                   
   28 L1  P.COLOMB-4MQ  1020-19. 240. -24.-999999989        1.5   0.       11000                                   
   30 L1  SCRUZ19--1MQ  1040-75.   0.   0.   0.   0.                       11000                                   
   31 L1 1SCRU13.8-1MQ  1030-75.   0.   0.   0.   0.         6.  1.5       11000                                   
   40 L1  BGERAL  34.5   980-56.   0.39.82-90009000.       80.2  4.6       11000                                   
   41 L1  B.SUL-CS 1MQ  1028-52.   0.25.43-999999999   224                 11000                                   
   44 L1  GRAJAU---2MQ   968-68.   0.366.2-91509200.   178  2.6   0.       11000                                   
   45 L1  VITORIA--SIN   950-96.   0.40.71-99999999.                  20.  11000                                   
   48 L1  IBIUNA---3MQ  1042-19.   0.315.2-999999999    86                 11000                                   
   50 L1  T.PRETO--1MQ  1040-28.   0.74.11-999999900         .5   0.       11000                                   
   60 L  9F.IGUACU-765   9723.98                                    -660.  11000                                   
   61 L  7FOZ-500-60HZ  10219.74                                           11000                                   
   62 L  9IV-FOZ-1-765  1040-19.                                    -150.  11000                                   
   63 L  9IV-FOZ-2-765  1040-19.                                    -150.  11000                                   
   65 L  9IVAIPORA-765  1010-11.                                    -330.  11000                                   
   66 L  8IVAIPORA-525  1031-15.                                           11000                                   
   67 L  2IVAIPORA--69  1032-16.                             .2   0.       11000                                   
   68 L   IVAIPO-TRAFO  1032-16.                                           11000                                   
   69 L  9IV-ITA-1-765   995-3.9                                    -330.  11000                                   
   70 L  9IV-ITA-2-765   995-3.9                                    -330.  11000                                   
   72 L  9ITABERA--765  1020-17.                                    -990.  11000                                   
   73 L  9ITA-TP-1-765   982-9.1                                           11000                                   
   74 L  9ITA-TP-2-765   982-9.1                                           11000                                   
   76 L  9T.PRETO--765   989-25.                                    -660.  11000                                   
   77 L  7T.PRETO--500  1076-32.                                           11000                                   
   78 L  5T.PRETO--345   968-28.                                     600.  11000                                   
   79 L  2T.PRETO-- 69   981-32.                                           11000                                   
   80 L   TPRETO-TRAFO   981-32.                                           11000                                   
   81 L   T.PRETO-TRAF  1022-28.                                           11000                                   
   86 L1 5ITAIPU50-345  1000-19.5626.-3046-999999999                3070.  11000                                   
   87 L  7IBIUNA---500  1082-27.                                           11000                                   
  100 L  7MARIMBON-500  1079-21.                                           11000                                   
  101 L  7ARARAQUA-500  1082-27.                                    -292.  11000                                   
  102 L  7POCOS----500  1073-35.                                    -136.  11000                                   
  103 L  7CAMPINAS500   1079-31.                                     -73.  11000                                   
  104 L  7CPAULIST-500  1052-43.                                           11000                                   
  105 L  7ANGRAREIS500  1046-48.                                           11000                                   
  106 L  7ADRIANO--500  1005-57.                                           11000                                   
  107 L  7T.GRAJAU-500   994-61.                                           11000                                   
  120 L  5PCALDAS--345  1020-34.                                           11000                                   
  121 L   POCOSTRAFO    1032-34.                                           11000                                   
  123 L  5CAMPINAS-345  1000-32.                                           11000                                   
  124 L   CAMP.TRAFO    1006-32.                                           11000                                   
  126 L  5GUARULHO345B   990-28.                                           11000                                   
  127 L  5GUARULHO345A   989-28.                                           11000                                   
  129 L  5MOGI-----345   959-31.                                           11000                                   
  130 L   MOGI--FIC      977-34.                                           11000                                   
  131 L  5MASC-----345  1053-32.                                           11000                                   
  132 L   MASC.FICTICI  1078-33.                                           11000                                   
  134 L  5LBARRETO-345  1053-31.                                           11000                                   
  136 L  5FURNAS---345  1047-37.                                           11000                                   
  138 L  5ITUTINGA-345  1021-52.                                           11000                                   
  140 L  5ADRIANO--345   996-65.                                     -60.  11000                                   
  141 L   ADRIAN-TRAFO   938-67.                                           11000                                   
  142 L   ADRIAN-FICTI   967-71.                                           11000                                   
  144 L  5JACAREP-345   1003-67.                                           11000                                   
  147 L  5CAMPOS--345    933-83.                                    -120.  11000                                   
  149 L  5VITORIA--345   925-96.                                           11000                                   
  150 L   VITORIA--FIC   911-102                                           11000                                   
  160 L  4GUARULHOS230  1021-34.                             .5   0.       11000                                   
  161 L  4MOGI-----230  1046-33.                             .3   0.       11000                                   
  170 L  3PCALDAS--138  1050-39.                                           11000                                   
  171 L  3CAMPINAS-138  1010-36.                           291. 80.6       11000                                   
  172 L  3IMBARIE-138    988-73.                           248. 104.       11000                                   
  173 L  3ADRIANO--138  1020-70.                           202. 55.4       11000                                   
  174 L   FCE/CELF-RLE   951-85.                           161.  25.       11000                                   
  175 L  3CAMPOS-138     979-88.                           116.  15.  25.  11000                                   
  177 L  3VITORIA--138  1025-101                           719.-42.4       11000                                   
  178 L  3GRAJAU---138   990-68.                           168. 39.8       11000                                   
  179 L   GRAJAU-FIC     942-68.                                           11000                                   
  180 L  3JACAREP--138   973-70.                           340. 84.6 200.  11000                                   
  181 L   JACARE FIC    1020-71.                                           11000                                   
  182 L  3FUNIL----138   991-58.                           28.9  7.8       11000                                   
  183 L  3CPAULIST-138  1036-47.                                           11000                                   
  184 L  3SCRUZ----138   972-75.                                           11000                                   
  185 L  3ANGRA -- 138   990-77.                           43.8  3.6  35.  11000                                   
  186 L  3CATAGUAZ-138   977-81.                           50.2 23.3       11000                                   
  187 L  3MASC-----138  1036-33.                           125.   5.       11000                                   
  190 L  3PCOL-CPFL138  1031-24.                           93.6 18.1       11000                                   
  193 L   MOGI-TER-13.   944-34.                             .5   0. -45.  11000                                   
  194 L   ADRIAN-TERCI   992-71.                                      80.  11000                                   
  195 L  1ADRIANO-13.8   959-67.                            2.3   0.  24.  11000                                   
  196 L   CAMPINAS13    1006-32.                                           11000                                   
  197 L   JACARE TER    1020-71.                            1.3   0.       11000                                   
  198 L  1POCOS---13.8  1032-34.                            1.2   0.       11000                                   
  199 L   VITORIA--TER   937-102                             .4   0.  50.  11000                                   
  200 L   UTEC----FIC1   957-90.                           26.6 13.7       11000                                   
  201 L1  UTEC--1--1MQ  1035-91.   0.   0.   0.   0.        1.2   0.       11000                                   
  202 L   UTEC----FIC2   957-90.                           26.6 13.7       11000                                   
  203 L1  UTEC--2--1MQ  1015-91.   0.   0.   0.   0.        1.2   0.       11000                                   
  210 L  7ITUMBIARA500  1082-21.                                    -111.  11000                                   
  213 L  5MARIMBON-345  1044-23.                                           11000                                   
  214 L   MARIMB-TRAFO  1049-24.                                           11000                                   
  216 L  5PCOLOMBIA345  1053-26.                                           11000                                   
  217 L  5ITUMBIARA345  1039-26.                                     -96.  11000                                   
  218 L  5BANDEIRA-345   968-40.                                           11000                                   
  219 L  5BRAS.SUL-345   954-50.                                           11000                                   
  220 L   BSULFIC230A    974-52.                                           11000                                   
  221 L   BSULFIC230B    974-52.                                           11000                                   
  222 L   BANDEIRA-FIC   938-45.                                           11000                                   
  223 L   BANDEI-TERC    938-45.                                           11000                                   
  224 L   B.SUL-FIC-6.   980-52.                                           11000                                   
  225 L  4ITUMBIA-230   1030-28.                                           11000                                   
  226 L  4BANDEIR-230    990-44.                            9.8 28.1       11000                                   
  227 L  4B.GERAL-230   1022-52.                            1.6-11.8       11000                                   
  228 L  4BSUL----230   1021-52.                                           11000                                   
  229 L  4B.ALTO--230   1036-63.                             .5   0. 27.7  11000                                   
  230 L  4S.MESA--230   1038-71.                                           11000                                   
  231 L  4R.VERDE-230   1045-43.                           221. -61.       11000                                   
  232 L  1BSUL--13.8A   1019-52.                                      30.  11000                                   
  236 L   FCE/CEB-BSUL  1008-56.                           384. 98.8  30.  11000                                   
  238 L   RVERDE FCE    1021-44.                           45.9-16.2       11000                                   
  239 L  3S.MESA---138  1000-74.                           25.3-14.9       11000                                   
  240 L   R.VERDE-FICT  1033-44.                                           11000                                   
  241 L   R.VERDE-TERC  1033-44.                                           11000                                   
  242 L   R.VERDE-REAT  1021-44.                                           11000                                   
  246 L  1MARIMBON13.8  1049-24.                                           11000                                   
  247 L  3C.BRAVA--138   993-75.                                           11000                                   
  250 L1  N.PECANH-GER  1040-57. 332.201.2-9985 280.                       91000                                   
  251 L  3N.PECANH-138  1000-64.                           46.9 18.4       91000                                   
  252 L  4N.PECANH-230   873-68.                                           91000                                   
  253 L1  FONTES---GER  1060-61.  79.62.86   0.  75.                  20.  91000                                   
  254 L  3FONTES---138  1000-64.                           78.1 23.2       91000                                   
  255 L1  P.PASSOS-GER  1060-58.  90.57.59-9010 100.                       91000                                   
  256 L  3P.PASSOS-138  1003-64.                           18.6  9.3       91000                                   
  257 L1  I.POMBOS-GER   970-77. 110.66.09-9928  70.                       91000                                   
  258 L  3I.POMBOS-138   984-80.                           49.7  8.2       91000                                   
  259 L1  SCECILIA BOM  1000-72.   0. 11.1   0.  12.       30.7   0.       91000                                   
  260 L  3S.CECILI-138   979-66.                           61.6 17.3       91000                                   
  261 L1  VIGARIO BOMB  1000-64.   0..3703   0.  30.                       91000                                   
  262 L  3VIGARIO--138   999-64.                            2.1  1.1       91000                                   
  269 L  3IMBA-TAP-138   964-75.                           46.9  6.8       91000                                   
  270 L   MERITI-MANOB   966-73.                           25.1 14.6       91000                                   
  271 L  3MERITI---138   966-73.                           59.1  14.       91000                                   
  272 L  3TRIAGEM--138   970-72.                           262. -8.1       91000                                   
  273 L  3SAUDADE--138   957-64.                           58.9  9.4       91000                                   
  274 L  3V.REDOND-138   951-65.                           385. 233. 135.  91000                                   
  275 L  3CASCADUR-138   976-70.                           745. 92.9       91000                                   
  276 L  3BRISAMAR-138   973-75.                           28.4  8.1       91000                                   
  277 L  3ZIN------138   970-75.                           132. 66.9  45.  91000                                   
  278 L  3PALMARES-138   977-74.                           134. 55.4 135.  91000                                   
  279 L  3TAP-4----138   976-70.                           14.8  4.5       91000                                   
  280 L  3TAP-3----138   976-70.                                           91000                                   
  281 L  3TAP-2----138   979-70.                                           91000                                   
  282 L  3TAP-1----138   979-70.                                           91000                                   
  283 L  3T.SUL----138   989-68.                           252. -8.1       91000                                   
  284 L  3F.CANECA-138   985-69.                           504.  60.       91000                                   
  298 L  3VREDONDII138   979-54.                                           91000                                   
  299 L1 3NPECANHII138   987-44.  48.9.137-999999990                       91000                                   
  300 L1  EMBORCA-04MQ  1030-22. 800. 16.8-999999999                       21000                                   
  301 L1  JAGUARA-03MQ  1010-27. 290.-25.9-999999999                       21000                                   
  303 L1  SSIMAO--05MQ  1040-10.1200.22.18-999999999                       21000                                   
  304 L1  TMARIAS-04MQ  1030-60. 150.-33.4-999999999                       21000                                   
  305 L1  VGRANDE-04MQ  1020-23. 370.-23.7-999999999                       21000                                   
  307 L  3AVATINGU-138   979-36.   2.   0.                 48.6 22.7       21000                                   
  308 L  5BARBACEN-345  1039-52.                                           21000                                   
  309 L  3BARBACEN-138  1045-53.                           62.6  9.2       21000                                   
  310 L   BARBACEN-CAP  1054-53.                                      18.  21000                                   
  313 L  5BARREIRO-345  1008-52.                                           21000                                   
  314 L  3BARREIRO-138  1051-56.   4.   0.                 397. 169.       21000                                   
  315 L1  BARREIRO-SIN  1060-56.   0.   0.   0.   0.                       21000                                   
  316 L   BARREIRO-FIC  1017-56.                                           21000                                   
  320 L  7EMBORCAC-500  1083-27.                                    -182.  21000                                   
  321 L  3EMBORCAC-138  1045-30.                           77.3 11.9       21000                                   
  323 L  3ITUTING2-138  1050-53.                           134. -5.3       21000                                   
  325 L  7JAGUARA--500  1079-33.                                    -455.  21000                                   
  326 L  5JAGUARA--345  1050-32.                                           21000                                   
  327 L   JAGUARA--REA  1050-32.                                           21000                                   
  328 L   JAGUARA-FT-R  1080-35.                                           21000                                   
  330 L  3JAGUARA--138  1051-37.                           177. 54.1       21000                                   
  331 L  5JUIZFORA-345  1028-53.                                           21000                                   
  332 L  3JUIZFORA-138  1043-55.   6.   0.                 168. 59.9       21000                                   
  333 L   JUIZFORA-CAP  1052-55.                                      18.  21000                                   
  336 L  5LAFAIETE-345  1028-52.                                           21000                                   
  337 L  3LAFAIETE-138  1043-54.                           189.  67.  18.  21000                                   
  338 L   LAFAIETE-CAP  1043-54.                                           21000                                   
  341 L  5MCLAROS--345  1072-70.                                           21000                                   
  342 L  3MCLAROS2-138  1040-72.   2.   0.                 163.  5.3       21000                                   
  344 L  7MESQUITA-500  1047-55.                                           21000                                   
  345 L  4MESQUITA-230  1017-58.                           379. 128.       21000                                   
  346 L1  MESQUITA-SIN   976-58.   0.   0.   0.   0.   345                 21000                                   
  349 L  7NEVES----500  1064-49.                                     -91.  21000                                   
  350 L  5NEVES----345  1025-52.                                           21000                                   
  351 L   NEVES----REA  1023-52.                                           21000                                   
  353 L  3NEVES----138  1051-54.                           470. 140.       21000                                   
  354 L1  NEVES----SIN  1090-54.   0.65.85-999999999   353                 21000                                   
  356 L   NEVESFIC-345  1023-52.                                           21000                                   
  358 L  3NEVESFIC-138  1047-54.                                           21000                                   
  362 L  3PASSOS---138   981-41.                            72.  15.  18.  21000                                   
  364 L  3PCALDAS1-138  1046-39.   5.   0.                 218.  55.       21000                                   
  365 L  3PCALDAS2-138  1047-39.                           152.  56.       21000                                   
  367 L  5PIMENTA--345  1047-41.                                           21000                                   
  368 L  3PIMENTA--138  1071-43.                           82.5 15.2       21000                                   
...
99999
DLIN
(De )d O d(Pa )NcEP ( R% )( X% )(Mvar)(Tap)(Tmn)(Tmx)(Phs)(Bc  )(Cn)(Ce)Ns(Cq)(1)(2)(3)(4)(5)(6)(7)(8)(9)(10
   14       182 1           6.27                                270.270.  270.                                
   16       136 1           1.09                                12801280  1280                                
   20       100 1            .77         1.                     15201520  1520                                
   22       131 1           4.11                                378.378.  378.                                
   28       190 1            3.4                                336.336.  336.                                
   30       184 1            5.8                                480.480.  480.                                
   41       224 1          19.83                                 50. 50.   50.                                
   44       179 1            .68         1.                     24002400  2400                                
   50        81 1          2.483                                15001500  1500                                
   60        62 1      .07 1.835918.15                                                                        
   60        63 1      .07 1.835918.15                                                                        
   61        60 1           .216       1.05                                                                   
   61      1106 1 T   .005  .10610.871                                                                        
   61      1106 2 T   .005  .10711.032                                                                        
   61      1106 3 T   .005  .10610.871                                                                        
   65        68 1           .697         1.                     16501650  1650                                
   66        68 1           -.03         1.                     16501650  1650                                
   66       999 1 T         .105 1.135                          16361636  1636                                
   67        68 1          3.544         1.                     16501650  1650                                
   69        72 1     .059 1.515746.84                                                                        
   70        72 1     .059 1.515746.84                                                                        
   73        76 1     .067 1.733 862.7                                                                        
   74        76 1     .067 1.733 862.7                                                                        
   76        80 1           .697         1.                     16501650  1650                                
   76        81 1          1.033         1.                     15001500  1500                                
   77        80 1           -.03      1.097                     16501650  1650                                
   77       104 1      .17  2.59216.18                                                                        
   77       598 1 T    .11  1.46136.43                          17321732  1732                                
   78        76 1           .923        .95                                                                   
   78        81 1           -.11        .95                     15001500  1500                                
   78        86 1      .19  2.55 59.63                          18821882  1882                                
   78        86 2      .19  2.55 59.63                                                                        
   78       463 1 T    .08   .74 12.85                          10751075  1075                                
   78       464 1 T     .1  1.08  17.7                          10751075  1075                                
   78       464 2 T     .1  1.08  17.7                                                                        
   78       471 1 T    .09   .84 13.53                          10751075  1075                                
   79        80 1          3.544         1.                     16501650  1650                                
   86        48 1           .953       .987                     10501050  1050                                
   86        87 1          2.897       .933                                                                   
   86       126 1       .1  1.71 47.65                                                                        
   86       126 2       .1  1.71 47.65                                                                        
   86       487 1 T    .09  1.54 38.04                          14941494  1494                                
   86       487 2 T    .09  1.54 38.04                          14941494  1494                                
   87       103 1       .1  1.54128.54                                                                        
  100       101 1     .179 2.705229.04                          17321732  1732                                
  100       101 2     .181 2.732231.43                                                                        
  100       214 1          2.978       1.05                     560.560.  560.                                
  100       535 1 T    .13 1.963164.73                          866.866.  866.                                
  101       102 1     .164 2.472208.61                          17321732  1732                                
  101       103 1      .16 2.417203.86                          17321732  1732                                
  102       104 1     .177 2.678226.46                          12991299  1299                                
  102       121 1          2.929       1.05                     560.560.  560.                                
  103       104 1     .202 3.059259.91                          12991299  1299                                
  103       124 1           2.94       1.05                     560.560.  560.                                
  104       105 1     .093 1.405117.51                          12991299  1299                                
  104       106 1     .158  2.38200.29                          12991299  1299                                
  104       106 2     .158  2.38200.29                                                                        
  104       183 1          2.668         1.                     500.500.  500.                                
  104       598 1 T   .082  1.25 92.15                          17321732  1732                                
  105        10 1           1.94       1.05                     759.759.  759.                                
  105       106 1     .107 1.614 135.2                          12991299  1299                                
  106       107 1     .036   .75 80.48                          17321732  1732                                
  106       107 2     .036   .75 80.48                                                                        
  106       141 1          1.325       1.05                     11201120  1120                                
  107       179 1           .574       1.05                     24002400  2400                                
  120       121 1          -.526        .99                     560.560.  560.                                
  120       123 1     .371 3.93167.035                          597.597.  597.                                
  120       126 1     .646  5.67 96.45                                                                        
  120       126 2     .646  5.67 96.45                                                                        
  120       129 1     .593  6.32108.92                          597.597.  597.                                
  120       134 1     .576 6.138105.64                          717.717.  717.                                
  120       134 2     .574 6.107 105.1                                                                        
  120       136 1     .469 4.09969.269                          597.597.  597.                                
  120       136 2     .469 4.09969.269                                                                        
  121       198 1         18.099                                450.450.  450.                                
  123       124 1          -.521        .99                     560.560.  560.                                
  123       127 1      .26  2.1546.775                                                                        
  124       196 1         18.082                                300.300.  300.                                
  126       127 1           .099                                                                              
  126       435 1 T   .006   .12   3.4                                                                        
  126       435 2 T   .006   .12   3.4                                                                        
  127       444 1 T   .049  .424 7.114                                                                        
  129       130 1          1.905       .957                                                                   
  129       444 1 T   .131 1.145 19.23                          717.717.  717.                                
  129       463 1 T    .02   .21  2.85                          932.932.  932.                                
  130       193 1           7.88                                                                              
  131       132 1          6.619       .972                     150.150.  150.                                
  131       134 1       .1  1.0317.529                          717.717.  717.                                
  131       136 1     .373 3.25954.695                          717.717.  717.                                
  134        12 1           1.05       .999                     11361136  1136                                
  134       136 1     .389 4.11670.274                          597.597.  597.                                
  134       326 1 T    .07   .7612.287                          717.717.  717.                                
  134       396 1 T   .331 3.49759.559                          699.699.  699.                                
  136       138 1     .697 6.128104.39                          896.896.  896.                                
  136       138 2      .58  6.17106.03                                                                        
  136       367 1 T   .244 2.13535.846                          699.699.  699.                                
  138       140 1       .7 6.158104.92                          896.896.  896.                                
  138       140 2     .577 6.136105.49                                                                        
  140       141 1          -.214       1.06                     11201120  1120                                
  140       142 1          1.568      1.005                     675.675.  675.                                
  140       144 1     .137 1.19420.032                          717.717.  717.                                
  140       144 2     .107 1.127 19.08                                                                        
  140       147 1     .764 8.204143.09                          639.639.  639.                                
  140       147 2     .766 8.203143.48                                                                        
  141       195 1           9.03         1.                     560.560.  560.                                
  142       194 1           3.07                                675.675.  675.                                
  144       181 1           1.19      1.004                     900.900.  900.                                
  147       149 1     .692 7.402128.37                          717.717.  717.                                
  147       149 2     .694 7.402128.72                                                                        
  149        45 1           .217       .975                                                                   
  149       150 1          1.699      1.004                     675.675.  675.                                
  150       199 1          5.512                                675.675.  675.                                
  160       419 1 T    .41  2.08  3.78                          310.310.  310.                                
  161       130 1          -.605      1.065                                                                   
  161       446 1 T    .06   .57   .83                          358.358.  358.                                
  161       454 1 T    .76  5.02  8.22                          311.311.  311.                                
  170       120 1          2.232      1.081 .9931.202        170600.600.  600.                                
  170       364 1 T    .06   .31   .07                          251.251.  251.                                
  170       365 1 T    .06   .31   .07                          239.239.  239.                                
  170       705 1 T    2.2  8.07  2.18                                                                        
  170       705 2 T    2.2  8.07  2.18                                                                        
  171       123 1          3.044      1.037 .9931.202        171300.300.  300.                                
  171       568 1 T  1.393 3.546                                                                              
  171       572 1 T   1.23 3.658                                                                              
  172       173 1     .819 4.827 1.383                          143.143.  143.                                
  172       173 2     .819 4.827 1.383                                                                        
  172       173 3    2.688 15.59                                                                              
  172       174 1   42.092163.49                                                                              
  173       142 1          -.108      1.052                     675.675.  675.                                
  173       174 1    5.21221.185                                                                              
  173       269 1 T 14.45991.086                                                                              
  174       175 1     6.37 27.22 7.374                          143.143.  143.                                
  174       175 2     6.37 27.22 7.374                                                                        
  174       175 3   10.78726.032                                                                              
  174       258 1 T  5.45716.607                                                                              
  174       269 1 T 17.49457.756                                                                              
  175       147 1          4.251      1.083                     225.225.  225.                                
  175       177 1    7.73129.257                                                                              
  175       200 1     .11914.462                                                                              
  175       202 1     .11914.462                                                                              
  175       258 1 T  17.2550.748                                                                              
  175       269 1 T 79.369215.68                                                                              
  177       150 1          -.196      1.095 .8961.095        177675.675.  675.                                
  177       394 1 T  5.84734.301                                                                              
  178       179 1           -.02       1.05                     24002400  2400                                
  178       275 1 T   .187 1.065                                                                              
  178       279 1 T    .37 2.106  .598                          218.218.  218.                                
  178       280 1 T    .37 2.106  .598                          218.218.  218.                                
  178       281 1 T   .336 1.914  .544                          218.218.  218.                                
  178       282 1 T   .336 1.914  .544                          218.218.  218.                                
  178       283 1 T   .277 1.579  .449                          218.218.  218.                                
  178       283 2 T    .28   1.6  .456                          218.218.  218.                                
  178       283 3 T    .28   1.6  .456                          218.218.  218.                                
  178       283 4 T    .28   1.6  .456                          218.218.  218.                                
  178       284 1 T   .062  .355                                                                              
  180       181 1          -.112       .956                     900.900.  900.                                
  180       184 1     1.71  9.17 2.629                          215.215.  215.                                
  180       277 1 T   1.38  7.89 2.244                          215.215.  215.                                
  180       278 1 T   1.16  6.62    2.                          215.215.  215.                                
  180       278 2 T  1.359 7.749                                                                              
  180       279 1 T   .529 3.015                                                                              
  180       280 1 T   .529 3.015  .857                          218.218.  218.                                
  180       281 1 T   .424 2.417  .687                          218.218.  218.                                
  180       282 1 T   .424 2.417  .687                          218.218.  218.                                
  181       197 1          2.467         1.                     900.900.  900.                                
  182       183 1     2.05 12.07 3.457                                                                        
  182       273 1 T  2.55510.349                                                                              
  182       273 2 T  2.54510.388                                                                              
  182       274 1 T   2.38   14.  4.01                                                                        
  183       274 1 T   4.43 26.07 7.467                                                                        
  184        31 1          18.48      1.045                     200.200.  200.                                
  184       185 1     3.94 23.26 6.676                           72. 72.   72.                                
  184       276 1 T   .739  4.36  .252                          135.135.  135.                                
  184       276 2 T   .739  4.36  .252                          135.135.  135.                                
  184       277 1 T    .21  1.22  .347                          215.215.  215.                                
  184       277 2 T    .42  1.27   .32                          215.215.  215.                                
  184       277 3 T    .21  1.22  .347                          215.215.  215.                                
  184       278 1 T    .41  2.37   .71                          215.215.  215.                                
  184       278 2 T    .41  2.37   .71                          215.215.  215.                                
  185       276 1 T  2.34810.182                                                                              
  186       258 1 T  1.193 2.478  .598                           66. 66.   66.                                
  186       258 2 T   1.38  2.87  .693                           66. 66.   66.                                
  187        24 1           6.07      1.075                     200.200.  200.                                
  187       132 1           .567       .962  .95 1.05        187150.150.  150.                                
  187       190 1   12.80627.365                                                                              
  187       330 1 T   7.33 20.19 4.719                           96. 96.   96.                                
  187       362 1 T   7.31 19.34  4.52                           96. 96.   96.                                
  187       564 1 T  5.01514.613                                                                              
  190       216 1          6.664         1.                                                                   
  190       560 1 T 11.53840.033                                                                              
  190       564 1 T   24.979.643                                                                              
  200       201 1           57.5                                 20. 20.   20.                                
  200       202 1    -.004-1.718         1.                                                                   
  202       203 1           57.5                                 20. 20.   20.                                
  210        18 1            .83       1.05                     24002400  2400                                
  210       217 1           .858      1.024                     16801680  1680                                
  210       320 1 T   .125 1.937149.96                          12991299  1299                                
  210       370 1 T   .154 2.321195.54                          17321732  1732                                
  213       214 1          -.621         1.                     560.560.  560.                                
  213       216 1     .231  2.4441.441                          597.597.  597.                                
...
(De )d O d(Pa )NcEP ( R% )( X% )(Mvar)(Tap)(Tmn)(Tmx)(Phs)(Bc  )(Cn)(Ce)Ns(Cq)(1)(2)(3)(4)(5)(6)(7)(8)(9)(10
   72       73  1          -.915                                                    
   72       74  1          -.915                                                    
   65       69  1          -.778                                                    
   65       70  1          -.778                                                    
   62       65  1          -.749                                                    
   63       65  1          -.749                                                    
99999
DGLT
(G (Vmn) (Vmx) (Vmne (Vmxe
 0   .95  1.05   .95  1.05
99999
DARE
(Ar    (Xchg)     (      Identificacao da area       ) (Xmin) (Xmax)
  1        0.     *              FURNAS              *    -5.     5. 
  2        0.     *              CEMIG               *    -5.     5. 
  4        0.     *           ELETROPAULO            *    -5.     5. 
  5        0.     *              CESP                *    -5.     5. 
  9        0.     *              LIGHT               *    -5.     5. 
 12        0.     *              CELG                *    -5.     5. 
 17        0.     *             ITAIPU               *    -5.     5. 
 18        0.     *              ANDE                *    -5.     5. 
 20        0.     *            ELETROSUL             *    -5.     5. 
 21        0.     *              COPEL               *    -5.     5. 
 23        0.     *              CEEE                *    -5.     5. 
 26        0.     *             ENERSUL              *    -5.     5. 
99999
DGBT
(G ( kV)
 9  765.
 8  525.
 7  500.
 6  440.
 5  345.
 4  230.
 3  138.
 2   69.
 1  13.8
 0    1.
99999
FIM